/*--------------------------------*- C++ -*----------------------------------*\
| =========                 |                                                 |
| \\      /  F ield         | OpenFOAM: The Open Source CFD Toolbox           |
|  \\    /   O peration     | Version:  2.2.0                                 |
|   \\  /    A nd           | Web:      www.OpenFOAM.org                      |
|    \\/     M anipulation  |                                                 |
\*---------------------------------------------------------------------------*/
FoamFile
{
    version     2.0;
    format      ascii;
    class       dictionary;
    location    "system";
    object      fvSchemes;
}
// * * * * * * * * * * * * * * * * * * * * * * * * * * * * * * * * * * * * * //

ddtSchemes
{
    default         Euler;
}

gradSchemes
{
    default         pointCellsLeastSquares;
    // nHat faceLimited pointCellsLeastSquares 1;
    // grad(alpha.water) faceLimited pointCellsLeastSquares 1;
}

divSchemes
{
    // div(phi,alpha)  Gauss vanLeer;
    div(phi,alpha)  Gauss upwind;
    // div(phi,alpha)  Gauss CICSAM 0.5;
    // div(phi,alpha)  Gauss HRIC;
    div(phirb,alpha) Gauss vanLeer01;
}

laplacianSchemes
{
    default         Gauss linear corrected;
}

interpolationSchemes
{
    default         linear;
}

snGradSchemes
{
    default         corrected;
}

fluxRequired
{
    default         no;
    p_rgh;
    pcorr;
    alpha.water;
}


// ************************************************************************* //
